REMARK  15 active torsions:
REMARK  status: ('A' for Active; 'I' for Inactive)
REMARK    1  A    between atoms: C_3  and  N_11 
REMARK    2  A    between atoms: C_3  and  N_8 
REMARK    3  A    between atoms: C_4  and  C_5 
REMARK    4  A    between atoms: C_4  and  O_10 
REMARK    5  A    between atoms: C_4  and  O_12 
REMARK    6  A    between atoms: C_5  and  N_8 
REMARK    7  A    between atoms: C_5  and  O_16 
REMARK    8  A    between atoms: C_6  and  N_14 
REMARK    9  A    between atoms: O_9  and  O_10 
REMARK   10  A    between atoms: O_9  and  O_15 
REMARK   11  A    between atoms: O_9  and  O_16 
REMARK   12  A    between atoms: O_10  and  O_12 
REMARK   13  A    between atoms: O_10  and  N_11 
REMARK   14  A    between atoms: O_13  and  O_15 
REMARK   15  A    between atoms: O_13  and  N_14 
ROOT
HETATM    1  C   LIG     1       0.675  -0.003  -0.029  1.00  0.00     0.182 A 
HETATM    2  C   LIG     1       2.182  -0.019  -0.014  1.00  0.00    -0.034 A 
HETATM    3  C   LIG     1       2.936   1.173  -0.039  1.00  0.00    -0.035 A 
HETATM    4  C   LIG     1       4.342   1.182  -0.047  1.00  0.00    -0.012 A 
HETATM    5  C   LIG     1       5.027  -0.036  -0.010  1.00  0.00    -0.043 A 
HETATM    6  C   LIG     1       4.327  -1.245   0.040  1.00  0.00    -0.021 A 
HETATM    7  C   LIG     1       2.922  -1.218   0.047  1.00  0.00    -0.036 A 
HETATM    8  N   LIG     1       2.248  -2.506   0.130  1.00  0.00     0.000 N 
HETATM    9  O   LIG     1       2.465  -3.307  -0.786  1.00  0.00     0.000 OA
HETATM   10  O   LIG     1       1.530  -2.701   1.117  1.00  0.00     0.000 OA
HETATM   11  N   LIG     1       6.497  -0.045  -0.007  1.00  0.00     0.000 N 
HETATM   12  O   LIG     1       7.061  -1.146   0.024  1.00  0.00     0.000 OA
HETATM   13  O   LIG     1       7.075   1.049  -0.030  1.00  0.00     0.000 OA
HETATM   14  N   LIG     1       2.275   2.474  -0.053  1.00  0.00     0.000 N 
HETATM   15  O   LIG     1       2.561   3.233  -0.986  1.00  0.00     0.000 OA
HETATM   16  O   LIG     1       1.499   2.721   0.877  1.00  0.00     0.000 OA
ENDROOT
TORSDOF 15
